Circuit: * C:\Users\xxjac\Documents\LTspiceXVII\Switching Scheme\Infineon-OptiMOS_PowerMOSFET_PSpice_60V_P-Channel-SimulationModels-v01_00-EN\Draft1.asc

Instance "m2": Length shorter than recommended for a level 1 MOSFET.
Instance "m2": Width narrower than recommended for a level 1 MOSFET.
Instance "m1": Length shorter than recommended for a level 1 MOSFET.
Instance "m1": Width narrower than recommended for a level 1 MOSFET.
Direct Newton iteration for .op point succeeded.

Date: Thu Nov 26 11:30:46 2020
Total elapsed time: 0.132 seconds.

tnom = 27
temp = 27
method = modified trap
totiter = 10040
traniter = 10034
tranpoints = 5018
accept = 5018
rejected = 0
matrix size = 18
fillins = 0
solver = Normal
Matrix Compiler1: 548 bytes object code size  0.2/0.1/[0.1]
Matrix Compiler2: off  [0.1]/0.2/0.1

